Circuit: * F:\WinSSDFolder\Documents\LTspiceXVII\examples\Educational\opampdesign.asc

Ignoring BSIM parameter XL
Ignoring BSIM parameter XW
Ignoring BSIM parameter XL
Ignoring BSIM parameter XW
Limiting fall time of source v4 to 0.01
WARNING: Node N003 is floating.
WARNING: Node N002 is floating.
WARNING: Node N014 is floating.
WARNING: Node N013 is floating.
WARNING: Node N004 is floating.
WARNING: Node N012 is floating.

WARNING: Less than two connections to node N003.  This node is used by M0.
WARNING: Less than two connections to node N002.  This node is used by M00.
WARNING: Less than two connections to node N014.  This node is used by M4.
WARNING: Less than two connections to node N013.  This node is used by M3.
WARNING: Less than two connections to node N004.  This node is used by M6.
WARNING: Less than two connections to node N012.  This node is used by M5.
WARNING: Less than two connections to node N015.  This node is used by V4.
Warning: Pd = 0.0006 is less than W.
Warning: Ps = 0.0006 is less than W.
Direct Newton iteration for .op point succeeded.

Date: Sat May 09 19:47:52 2020
Total elapsed time: 0.071 seconds.

tnom = 27
temp = 27
method = trap
totiter = 33
traniter = 0
tranpoints = 0
accept = 0
rejected = 0
matrix size = 20
fillins = 24
solver = Normal
Matrix Compiler1:     153 opcodes
Matrix Compiler2:     169 opcodes
